$$ HM_OUTPUT_DECK created 12:57:19 08-15-2017 by HyperMesh Version 14.0.0.88
$$ Ls-dyna Input Deck Generated by HyperMesh Version  : 14.0.0.88
$$ Generated using HyperMesh-Ls-dyna 971_R7.0 Template Version : 14.0
*KEYWORD
*INCLUDE
param.k
*DEFINE_TRANSFORMATION
$HMNAME SYSCOLS       2Pre_Rotation                                                            
         2
ROTATE           0.0       1.0       0.0      0.02       0.0     -0.22   &RotAng
*CONTROL_TERMINATION
$$  ENDTIM    ENDCYC     DTMIN    ENDENG    ENDMAS     NOSOL
     &EndT                                                  
*CONTROL_SOLID
$$   ESORT    FMATRX   NIPTETS    SWLOCL    PSFAIL   T10JTOL
         1                                                  
$$DATABASE_OPTION -- Control Cards for ASCII output
*DATABASE_SPCFORC
$$      DT    BINARY      LCUR      IOPT
  &ForcOpt         0                    
*DATABASE_BINARY_D3PLOT
$$ DT/CYCL      LCDT      BEAM     NPLTC    PSETID
1.0000E-04                                        
*DEFINE_COORDINATE_NODES
         1     10399     10243     10224                   X
*NODE
       1 0.5534976899697 0.0742679739789 2.3870277733107                
       2 0.5242800417162 0.1068892036602 2.3943321853244                
       3 0.5656242820759 0.0742677440525 2.4355349456044                
       4 0.5364066609947 0.1068887800043 2.4428393508248                
       5 0.5777508741849 0.0742675141244 2.4840421178974                
       6 0.5485332802774  0.106888356347 2.4913465163242                
       7 0.5898774675468 0.0742672840757 2.5325492898951                
       8  0.560659900468 0.1068879326023 2.5398536816094                
       9  0.602004059684 0.0742670541423 2.5810564621812                
      10 0.5727865197754 0.1068875089406 2.5883608471028                
      11 0.6141306518243 0.0742668242072 2.6295636344667                
      12 0.5849131390871 0.1068870852774  2.636868012595                
      13 0.6262572439675 0.0742665942704 2.6780708067514                
      14 0.5970397584031 0.1068866616128 2.6853751780862                
      15 0.6383838361137  0.074266364332 2.7265779790353                
      16 0.6091663777234 0.1068862379468 2.7338823435762                
      17 0.6505104282629  0.074266134392 2.7750851513185                
      18  0.621292997048 0.1068858142794 2.7823895090652                
      19 0.6626370204151 0.0742659044503 2.8235923236009                
      20  0.633419616377 0.1068853906105 2.8308966745532                
$ ... 16068 like lines cut
*MAT_ELASTIC
$HMNAME MATERIALS         1steel                                                                           
         1    7800.02.1000E+11       0.3                              
*MAT_ELASTIC
$HMNAME MATERIALS         3Aluminum_Foam                                                                   
         3                                                            
*MAT_RIGID
$HMNAME MATERIALS         2rigid                                                                           
         2      78.02.1000E+11       0.3                                        
          
                                                            
*PART
$HWCOLOR COMPS       1      56
dan                                                                             
         1         1         2                                                  
$HWCOLOR COMPS       2      50
tong                                                                            
         2         1         1                                                  
$HWCOLOR COMPS       3      10
zuo                                                                             
         3         1         1                                                  
$HWCOLOR COMPS       4      60
ground                                                                          
         4         2         2                                                  
$HWCOLOR COMPS       5       4
zuo2                                                                            
         5         1         1                                                  
*SECTION_SHELL
$HMNAME PROPERTIES         2SectionShell                                                                    
         2                                                                      
1.0000E-031.0000E-031.0000E-031.0000E-03                                        
*SECTION_SOLID
$HMNAME PROPERTIES         1SectionSolid                                                                    
         1                    
$$ Base Accelerations and Angular Velocities
*LOAD_BODY_Z
$HMNAME LOADCOLS       1gravity                                                                 
$HWCOLOR LOADCOLS       1       4
         1       9.8                                                  
*LOAD_SEGMENT_SET
$HMNAME LOADCOLS       5Pressure                                                                
$HWCOLOR LOADCOLS       5      14
         5         3                    
*BOUNDARY_SPC_SET
$HMNAME LOADCOLS       2fixed-ground                                                            
$HWCOLOR LOADCOLS       2       7
         1                   1         1         1         1         1         1
$HMNAME LOADCOLS       3const_sprt                                                              
$HWCOLOR LOADCOLS       3       5
         2         1         1         1         0                              
*NODE_TRANSFORM
$HMNAME SYSCOLS       3Rotation_Nodes                                                          
         2         3
*SET_SEGMENT
$HMNAME CSURFS       1surface_ground                                                          
$HWCOLOR CSURFS       1      11
         1                                        MECH      
     15577     15579     15580     15576
     15576     15580     15572     15573
     15579     15565     15566     15580
     15580     15566     15567     15572
     15556     15557     15581     15578
     15578     15581     15579     15577
     15557     15558     15564     15581
     15581     15564     15565     15579
     15512     15582     15584     15511
     15511     15584     15575     15510
     15582     15583     15585     15584
     15584     15585     15574     15575
     15583     15577     15576     15585
     15585     15576     15573     15574
     15514     15554     15586     15513
     15513     15586     15582     15512
     15554     15555     15587     15586
     15586     15587     15583     15582
     15555     15556     15578     15587
     15587     15578     15577     15583
$ ... 189 like lines cut
*SET_SEGMENT
$HMNAME CSURFS       2surface_zuo                                                             
$HWCOLOR CSURFS       2      11
         2                                        MECH      
     10122     10123     10119     10118
      9303     10122     10118      9299
      9307     10126     10122      9303
      9311     10130     10126      9307
     10223     10230     10130      9311
     10230     10236     10131     10130
     10236     10237      9547     10131
     10237     10232     10034      9547
     10232     10233     10035     10034
     10233     10224      9582     10035
     10224     10227      9583      9582
      9582      9583      9581      9580
      9580      9581      9579      9578
     10031      9580      9578     10027
     10030     10031     10027     10026
      9545     10030     10026      9543
     10127      9545      9543     10123
      9578      9579      9577      9576
      9579      9293      9292      9577
      9173      9466      9462      9172
$ ... 140 like lines cut
*SET_SEGMENT
$HMNAME CSURFS       3surface_dan                                                             
$HWCOLOR CSURFS       3      11
         3                                        MECH      
       143       263       262       142
       144       264       263       143
       145       265       264       144
       146       266       265       145
       147       267       266       146
       148       268       267       147
       149       269       268       148
       150       270       269       149
       151       271       270       150
       152       272       271       151
       153       273       272       152
       154       274       273       153
       155       275       274       154
       156       276       275       155
       157       277       276       156
       158       278       277       157
       159       279       278       158
       160       280       279       159
       161       281       280       160
       162       282       281       161
$ ... 1884 like lines cut
*SET_SEGMENT
$HMNAME CSURFS       4surface_tong                                                            
$HWCOLOR CSURFS       4      11
         4                                        MECH      
     14419     11178     11174     14415
     11178     11179     11175     11174
     11179     11056     11054     11175
     11183     11058     11056     11179
     11187     11060     11058     11183
     11191     11062     11060     11187
     11195     11064     11062     11191
     11199     11066     11064     11195
     11203     11068     11066     11199
     11207     11070     11068     11203
     11211     11072     11070     11207
     11215     11074     11072     11211
     11219     11076     11074     11215
     11223     11078     11076     11219
     11227     11080     11078     11223
     11231     11082     11080     11227
     11235     11084     11082     11231
     11239     11086     11084     11235
     11243     11088     11086     11239
     11247     11090     11088     11243
$ ... 2380 like lines cut
*SET_SEGMENT
$HMNAME CSURFS       5Press_Surf                                                              
$HWCOLOR CSURFS       5      11
         5                                        MECH      
      5715      5714      4256      3102
      5714      3566      4257      4256
      3566      6724      6723      4257
      4257      6723       955      4258
      4258       955      7732      7955
      7955      7954      5125      4258
      7954        86      5124      5125
        86        29      1186      5124
      7061      7060        29        86
      7060      1655      1654        29
      1655      1889      1888      1654
      1889      1890      4141      1888
      1888      4141      4140      1362
      1362      4140      2063      2062
      4140      6052      6051      2063
      2406      2064      2063      6051
      2409      3907      2064      2406
      2408      2409      2406      2407
      2407      3617       374      2408
      3617      3616       318       374
$ ... 340 like lines cut
*CONTACT_SURFACE_TO_SURFACE_ID
$HWCOLOR GROUPS       1      11
         1tong-dan                                                              
         4         3         0         0                                        
                                              40.0                              
                                                                                
*CONTACT_SURFACE_TO_SURFACE_ID
$HWCOLOR GROUPS       2      11
         2zuo-groud                                                             
         2         1         0         0                                        
       0.8                                                                      
                                                                                
*ELEMENT_SHELL
   11541       4   15577   15579   15580   15576
   11542       4   15576   15580   15572   15573
   11543       4   15579   15565   15566   15580
   11544       4   15580   15566   15567   15572
   11545       4   15556   15557   15581   15578
   11546       4   15578   15581   15579   15577
   11547       4   15557   15558   15564   15581
   11548       4   15581   15564   15565   15579
   11549       4   15512   15582   15584   15511
   11550       4   15511   15584   15575   15510
   11551       4   15582   15583   15585   15584
   11552       4   15584   15585   15574   15575
   11553       4   15583   15577   15576   15585
   11554       4   15585   15576   15573   15574
   11555       4   15514   15554   15586   15513
   11556       4   15513   15586   15582   15512
   11557       4   15554   15555   15587   15586
   11558       4   15586   15587   15583   15582
   11559       4   15555   15556   15578   15587
   11560       4   15587   15578   15577   15583
$ ... 189 like lines cut
*ELEMENT_SOLID
   11750       5   15735    9999    9256    9998    9998    9998    9998    9998
   11751       5   15850    9320   16086   15827   15827   15827   15827   15827
   11752       5    9481   15956   15734   15957   15957   15957   15957   15957
   11753       5   15955    9951   15737    9950    9950    9950    9950    9950
   11754       5   15735    9725    9726    9951    9951    9951    9951    9951
   11755       5   16051   15794   16041    9164    9164    9164    9164    9164
   11756       5   15903   15738   15741   16074   16074   16074   16074   16074
   11757       5   15735    9999    9998   15939   15939   15939   15939   15939
   11758       5    9803   15982    9129   15977   15977   15977   15977   15977
   11759       5   15850    9320   15827    9786    9786    9786    9786    9786
   11760       5   15952   15734   15957   15953   15953   15953   15953   15953
   11761       5   15952   15734   15956   15957   15957   15957   15957   15957
   11762       5   15953   15734    9425   15952   15952   15952   15952   15952
   11763       5   15953   15734    9482    9425    9425    9425    9425    9425
   11764       5   15953   15734    9481    9482    9482    9482    9482    9482
   11765       5   15735    9725    9951   15951   15951   15951   15951   15951
   11766       5   15735    9725   15951   15943   15943   15943   15943   15943
   11767       5   15943   15735   15947   15951   15951   15951   15951   15951
   11768       5   15943   15735   15939   15947   15947   15947   15947   15947
   11769       5   15943   15735    9726   15939   15939   15939   15939   15939
$ ... 2100 like lines cut
*ELEMENT_SOLID
       1       1    4565    8313    8312    3079    4561    8309    8308    3078
       2       1    4569    8317    8316    3080    4565    8313    8312    3079
       3       1    4575    8321    8320    3081    4569    8317    8316    3080
       4       1    4579    8325    8324    3082    4575    8321    8320    3081
       5       1    4583    8329    8328    3083    4579    8325    8324    3082
       6       1    4587    8333    8332    3084    4583    8329    8328    3083
       7       1    4591    8337    8336    3085    4587    8333    8332    3084
       8       1    4595    8341    8340    3086    4591    8337    8336    3085
       9       1    4599    8345    8344    3087    4595    8341    8340    3086
      10       1    4603    8349    8348    3088    4599    8345    8344    3087
      11       1    4607    8353    8352    3089    4603    8349    8348    3088
      12       1    4611    8357    8356    3090    4607    8353    8352    3089
      13       1    4615    8361    8360    3091    4611    8357    8356    3090
      14       1    4619    8365    8364    3092    4615    8361    8360    3091
      15       1    4623    8369    8368    3093    4619    8365    8364    3092
      16       1    4627    8373    8372    3094    4623    8369    8368    3093
      17       1    4633    8377    8376    3095    4627    8373    8372    3094
      18       1    4637    8381    8380    3096    4633    8377    8376    3095
      19       1    4641    8385    8384    3097    4637    8381    8380    3096
      20       1    4645    8389    8388    3098    4641    8385    8384    3097
$ ... 11520 like lines cut
$$
$$ Sets Defined In HyperMesh
$$
*SET_NODE_LIST
$HMSET
$HMNAME SETS       1ground_edge                                                             
         1                                        MECH      
     15494     15505     15524     15535
*SET_NODE_LIST
$HMSET
$HMNAME SETS       2supporting_point                                                        
         2                                        MECH      
     11711     11723     14769     14793
*SET_NODE_LIST
$HMSET
$HMNAME SETS       3Rotation_Nodes                                                          
         3                                        MECH      
         1         2         3         4         5         6         7         8
         9        10        11        12        13        14        15        16
        17        18        19        20        21        22        23        24
        25        26        27        28        29        30        31        32
        33        34        35        36        37        38        39        40
        41        42        43        44        45        46        47        48
        49        50        51        52        53        54        55        56
        57        58        60        61        62        63        64        65
        66        67        68        69        70        71        72        73
        74        75        76        77        78        79        80        81
        82        83        84        85        86        87        88        89
        90        91        92        93        94        95        96        97
        98        99       100       101       102       103       104       105
       106       107       108       109       110       111       112       113
       114       115       116       117       118       119       120       121
       122       123       124       125       126       127       128       129
       130       131       132       133       134       135       136       137
       138       139       140       141       142       143       144       145
       146       147       148       149       150       151       152       153
       154       155       156       157       158       159       160       161
$ ... 1961 like lines cut
*DEFINE_VECTOR
$HMNAME VECTORCOL       1Rotation_Axis                                                           
$HWCOLOR VECTORCOL       1       4
         10.019794561.7739E-17-0.21943250.01979456       1.0-0.2194325
*DEFINE_CURVE
$HMNAME CURVES         1gravity                                                                 
$HWCOLOR CURVES         1       3
$HMCURVE     1    0 gravity                                                                         
         1                 1.0       1.0                    
                 0.0                 1.0
                10.0                 1.0
*DEFINE_CURVE
$HMNAME CURVES         3Pressure_Curve                                                          
$HWCOLOR CURVES         3       4
$HMCURVE     1    0 Pressure_Curve                                                                  
         3                 1.0 &CurPress                    
                 0.0                 1.0
                10.0                 1.0
*END
$HMUSEDSYST 
$HMASSEM        1      11 Tong-Dan                                                                  
$HMASSEM_COMP_IDS        1       2       3
